"""
C. K. Westbrook, W. J. Pitz, O. Herbinet, H. J. Curran and E. J. Silke,
"A Detailed Chemical Kinetic Reaction Mechanism for n-Alkane Hydrocarbons from n-Octane to n-Hexadecane,"
Combust. Flame (2008), In press.  LLNL-JRNL-401196
LLNL-MI-407455
version dated 2008-09-02 C.K. Westbrook
n-alkane mechanisms v2
added consumption reactions for nc(x)h(2x+1)coch2
                                     nc(x)h(2x+1)coc2h4p
                                     nc(x)h(2x+1)coc3h6p

nc7_2b mechanism
 Curran, H. J., Pitz, W. J., and Westbrook, C. K., 2002
 UCRL-WEB-204236
 Review and release date: May 19, 2004.

 9/25/02 deleted unused species o2hc4h7cho, ic3h6chcho, ic3h6chco
         and ac3h5chcho
"""

units(length='cm', time='s', quantity='mol', act_energy='cal/mol')

ideal_gas(name='gas',
          elements="H C O N Ar",
          species="""h               h2              o
                     o2              oh              h2o
                     n2              co              hco
                     co2             ch3             ch4
                     ho2             h2o2            ch2o
                     ch3o            c2h6            c2h4
                     c2h5            ch2             ch
                     c2h             c2h2            c2h3
                     ch3oh           ch2oh           ch2co
                     hcco            c2h5oh          pc2h4oh
                     sc2h4oh         ch3co           ch2cho
                     ch3cho          c3h4-a          c3h4-p
                     c3h6            c4h6            nc3h7
                     ic3h7           c3h8            ic4h7
                     ic4h8           c4h7            c4h8-2
                     c4h8-1          sc4h9           pc4h9
                     tc4h9           ic4h9           ic4h10
                     c4h10           ch3coch3        ch3coch2
                     c2h5cho         c2h5co          c5h9
                     c5h10-1         c5h10-2         ic5h12
                     ac5h11          bc5h11          cc5h11
                     dc5h11          ac5h10          bc5h10
                     cc5h10          ic5h9           nc5h12
                     c5h11-1         c5h11-2         c5h11-3
                     neoc5h12        neoc5h11        c2h5o
                     ch3o2           c2h5o2          ch3o2h
                     c2h5o2h         c2h3o1-2        ch3co2
                     c2h4o1-2        c2h4o2h         o2c2h4oh
                     ch3co3          ch3co3h         c2h3co
                     c2h3cho         c3h5o           c3h6ooh1-2
                     c3h6ooh1-3      c3h6ooh2-1      c3h6ooh1-2o2
                     c3h6ooh1-3o2    c3h6ooh2-1o2    nc3h7o
                     ic3h7o          nc3h7o2h        ic3h7o2h
                     nc3h7o2         ic3h7o2         c3h6o1-3
                     ic4h8o          ic4h8oh         io2c4h8oh
                     ic4h7o          c4h7o           c4h8oh-1
                     c4h8oh-2        c4h8oh-1o2      c4h8oh-2o2
                     c4h8ooh1-2o2    c4h8ooh1-3o2    c4h8ooh1-4o2
                     c4h8ooh2-1o2    c4h8ooh2-3o2    c4h8ooh2-4o2
                     tc4h8ooh-io2    ic4h8ooh-io2    ic4h8ooh-to2
                     c4h8ooh1-2      c4h8ooh1-3      c4h8ooh1-4
                     c4h8ooh2-1      c4h8ooh2-3      c4h8ooh2-4
                     ic4h8o2h-i      ic4h8o2h-t      tc4h8o2h-i
                     c4h8o1-2        c4h8o1-3        c4h8o1-4
                     c4h8o2-3        cc4h8o          pc4h9o
                     sc4h9o          ic4h9o          tc4h9o
                     pc4h9o2h        sc4h9o2h        ic4h9o2h
                     tc4h9o2h        tc4h9o2         ic4h9o2
                     sc4h9o2         pc4h9o2         ch3coch2o2
                     ch3coch2o2h     ch3coch2o       neoc5ketox
                     neoc5kejol      ac5h11o2        bc5h11o2
                     cc5h11o2        dc5h11o2        ac5h11o2h
                     bc5h11o2h       cc5h11o2h       dc5h11o2h
                     ac5h11o         bc5h11o         cc5h11o
                     dc5h11o         ac5h10ooh-a     ac5h10ooh-b
                     ac5h10ooh-c     ac5h10ooh-d     bc5h10ooh-a
                     bc5h10ooh-c     bc5h10ooh-d     cc5h10ooh-a
                     cc5h10ooh-b     cc5h10ooh-d     dc5h10ooh-a
                     dc5h10ooh-b     dc5h10ooh-c     ac5h10ooh-ao2
                     ac5h10ooh-bo2   ac5h10ooh-co2   ac5h10ooh-do2
                     bc5h10ooh-ao2   bc5h10ooh-co2   bc5h10ooh-do2
                     cc5h10ooh-ao2   cc5h10ooh-bo2   cc5h10ooh-do2
                     dc5h10ooh-ao2   dc5h10ooh-bo2   dc5h10ooh-co2
                     a-ac5h10o       a-bc5h10o       a-cc5h10o
                     a-dc5h10o       b-cc5h10o       b-dc5h10o
                     c-dc5h10o       c5h11o2-1       c5h11o2-2
                     c5h11o2-3       c5h11o2h-1      c5h11o2h-2
                     c5h11o2h-3      c5h11o-1        c5h11o-2
                     c5h11o-3        c5h10ooh1-2     c5h10ooh1-3
                     c5h10ooh1-4     c5h10ooh1-5     c5h10ooh2-1
                     c5h10ooh2-3     c5h10ooh2-4     c5h10ooh2-5
                     c5h10ooh3-2     c5h10ooh3-1     c5h10ooh1-2o2
                     c5h10ooh1-3o2   c5h10ooh1-4o2   c5h10ooh1-5o2
                     c5h10ooh2-1o2   c5h10ooh2-3o2   c5h10ooh2-4o2
                     c5h10ooh2-5o2   c5h10ooh3-1o2   c5h10ooh3-2o2
                     c5h10o1-2       c5h10o1-3       c5h10o1-4
                     c5h10o1-5       c5h10o2-3       c5h10o2-4
                     neoc5h11o2      neoc5h11o2h     neoc5h11o
                     neoc5h10ooh     neoc5h10ooh-o2  neo-c5h10o
                     c3h5-a          c3h5-s          c3h5-t
                     c3h3            c3h2            c3h6o1-2
                     ho2cho          o2cho           ocho
                     ch2(s)          c3ket12         c3ket13
                     c3ket21         nc4ket12        nc4ket13
                     nc4ket14        nc4ket21        nc4ket23
                     nc4ket24        ic4ketii        ic4ketit
                     neoc5ket        nc5ket12        nc5ket13
                     nc5ket14        nc5ket15        nc5ket21
                     nc5ket23        nc5ket24        nc5ket25
                     nc5ket31        nc5ket32        ic5ketaa
                     ic5ketab        ic5ketac        ic5ketad
                     ic5ketca        ic5ketcb        ic5ketcd
                     ic5ketda        ic5ketdb        ic5ketdc
                     ic4h7-i1        c3h6oh          hoc3h6o2
                     o2c2h4o2h       ch2o2hcho       ic4h7ooh
                     ic3h5cho        tc3h6ocho       tc3h6cho
                     ic3h7cho        ic4h7oh         ic3h6co
                     ic4h6oh         ic3h5co         ic3h7co
                     tc3h6o2cho      tc3h6o2hco      ic3h5o2hcho
                     tc3h6ohcho      tc3h6oh         ic3h5oh
                     tc4h8cho        o2c4h8cho       o2hc4h8co
                     c3h5oh          ch2cch2oh       nc3h7cho
                     nc3h7co         ch2ch2coch3     c2h5coch2
                     c2h5coch3       ch2choohcoch3   ch3choohcoch3
                     ch3choococh3    ch3chcoch3      c2h3coch3
                     ch3chco         ch2ch2cho       c3h6cho-3
                     c3h6cho-2       c2h5chco        ic3h5coch3
                     ic3h5coch2      ac3h4coch3      sc3h5coch2
                     ch3chocho       ch3chcho        sc3h5cho
                     sc3h5co         ic3h6cho        c3h6cho-1
                     c2h5coc2h5      c2h5coc2h4p     c2h5coc2h4s
                     c2h5coc2h3      pc2h4coc2h3     sc2h4coc2h3
                     ic3h6chcoch3    ac3h5chcoch3    ic3h6chcoch2
                     nc3h7coch3      nc3h7coch2      c3h6coch3-1
                     c3h6coch3-2     c3h6coch3-3     ic3h7coch3
                     ic3h7coch2      ic3h6coch3      tc3h6coch3
                     nc3h7coc2h5     c3h6coc2h5-1    c3h6coc2h5-2
                     c3h6coc2h5-3    nc3h7coc2h4p    nc3h7coc2h4s
                     ic3h7coc2h5     ic3h6coc2h5     tc3h6coc2h5
                     ic3h7coc2h4p    ic3h7coc2h4s    ic3h7coc2h3
                     ic3h6coc2h3     tc3h6coc2h3     ic3h5coc2h5
                     ac3h4coc2h5     ic3h5coc2h4p    ic3h5coc2h4s
                     nc4h9cho        nc4h9co         ac3h5cho
                     ac3h5co         c2h3chcho       c4h8cho-1
                     c4h8cho-2       c4h8cho-3       c4h8cho-4
                     neoc5h9q2       neoc5h9q2-n     ic4h6q2-ii
                     hoch2o          hocho           nc6h14
                     c6h13-1         c6h13-2         c6h13-3
                     c6h12-1         c6h12-2         c6h12-3
                     c6h11           c6h12o1-2       c6h12o1-3
                     c6h12o1-4       c6h12o1-5       c6h12o2-3
                     c6h12o2-4       c6h12o2-5       c6h12o3-4
                     c6h13o2h-1      c6h13o2h-2      c6h13o2h-3
                     c6h13o2-1       c6h13o2-2       c6h13o2-3
                     c6h12ooh1-2     c6h12ooh1-3     c6h12ooh1-4
                     c6h12ooh1-5     c6h12ooh2-1     c6h12ooh2-3
                     c6h12ooh2-4     c6h12ooh2-5     c6h12ooh2-6
                     c6h12ooh3-1     c6h12ooh3-2     c6h12ooh3-4
                     c6h12ooh3-5     c6h12ooh3-6     c6h12ooh1-2o2
                     c6h12ooh1-3o2   c6h12ooh1-4o2   c6h12ooh1-5o2
                     c6h12ooh2-1o2   c6h12ooh2-3o2   c6h12ooh2-4o2
                     c6h12ooh2-5o2   c6h12ooh2-6o2   c6h12ooh3-1o2
                     c6h12ooh3-2o2   c6h12ooh3-4o2   c6h12ooh3-5o2
                     c6h12ooh3-6o2   nc6ket12        nc6ket13
                     nc6ket14        nc6ket15        nc6ket21
                     nc6ket23        nc6ket24        nc6ket25
                     nc6ket26        nc6ket31        nc6ket32
                     nc6ket34        nc6ket35        nc6ket36
                     c6h13o-1        c6h13o-2        c6h13o-3
                     nc7h16          c7h15-1         c7h15-2
                     c7h15-3         c7h15-4         c7h14-1
                     c7h14-2         c7h14-3         c7h13
                     c7h15o2-1       c7h15o2-2       c7h15o2-3
                     c7h15o2-4       c7h15o2h-1      c7h15o2h-2
                     c7h15o2h-3      c7h15o2h-4      c7h15o-1
                     c7h15o-2        c7h15o-3        c7h15o-4
                     c7h14ooh1-2     c7h14ooh1-3     c7h14ooh1-4
                     c7h14ooh1-5     c7h14ooh2-1     c7h14ooh2-3
                     c7h14ooh2-4     c7h14ooh2-5     c7h14ooh2-6
                     c7h14ooh3-1     c7h14ooh3-2     c7h14ooh3-4
                     c7h14ooh3-5     c7h14ooh3-6     c7h14ooh3-7
                     c7h14ooh4-1     c7h14ooh4-2     c7h14ooh4-3
                     c7h14ooh1-2o2   c7h14ooh1-3o2   c7h14ooh1-4o2
                     c7h14ooh1-5o2   c7h14ooh2-1o2   c7h14ooh2-3o2
                     c7h14ooh2-4o2   c7h14ooh2-5o2   c7h14ooh2-6o2
                     c7h14ooh3-1o2   c7h14ooh3-2o2   c7h14ooh3-4o2
                     c7h14ooh3-5o2   c7h14ooh3-6o2   c7h14ooh3-7o2
                     c7h14ooh4-1o2   c7h14ooh4-2o2   c7h14ooh4-3o2
                     c7h14o1-2       c7h14o1-3       c7h14o1-4
                     c7h14o1-5       c7h14o2-3       c7h14o2-4
                     c7h14o2-5       c7h14o2-6       c7h14o3-4
                     c7h14o3-5       nc7ket12        nc7ket13
                     nc7ket14        nc7ket15        nc7ket21
                     nc7ket23        nc7ket24        nc7ket25
                     nc7ket26        nc7ket31        nc7ket32
                     nc7ket34        nc7ket35        nc7ket36
                     nc7ket37        nc7ket41        nc7ket42
                     nc7ket43        nc5h11cho       nc5h11co
                     c5h10cho-1      c5h10cho-2      c5h10cho-3
                     c5h10cho-4      c5h10cho-5      c4h7cho1-4
                     c4h7co1-4       c4h6cho1-43     c4h6cho1-44
                     nc4h9coch3      nc4h9coch2      c4h8coch3-1
                     c4h8coch3-2     c4h8coch3-3     c4h8coch3-4
                     c4h7ooh1-4      c4h7o1-4        c5h9ooh1-4
                     c5h9o1-4        c5h9ooh1-5      c5h9o1-5
                     c6h11ooh1-4     c6h11o1-4       c6h11ooh1-5
                     c6h11o1-5       c4h71-4         ar
                     nc16h34         c16h33-1        c16h33-2
                     c16h33-3        c16h33-4        c16h33-5
                     c16h33-6        c16h33-7        c16h33-8
                     nc15h32         c15h31-1        c15h31-2
                     c15h31-3        c15h31-4        c15h31-5
                     c15h31-6        c15h31-7        c15h31-8
                     nc14h30         c14h29-1        c14h29-2
                     c14h29-3        c14h29-4        c14h29-5
                     c14h29-6        c14h29-7        nc13h28
                     c13h27-1        c13h27-2        c13h27-3
                     c13h27-4        c13h27-5        c13h27-6
                     c13h27-7        nc12h26         c12h25-1
                     c12h25-2        c12h25-3        c12h25-4
                     c12h25-5        c12h25-6        nc11h24
                     c11h23-1        c11h23-2        c11h23-3
                     c11h23-4        c11h23-5        c11h23-6
                     nc10h22         c10h21-1        c10h21-2
                     c10h21-3        c10h21-4        c10h21-5
                     nc9h20          c9h19-1         c9h19-2
                     c9h19-3         c9h19-4         c9h19-5
                     nc8h18          c8h17-1         c8h17-2
                     c8h17-3         c8h17-4         c16h32-1
                     c16h32-2        c16h32-3        c16h32-4
                     c16h32-5        c16h32-6        c16h32-7
                     c16h32-8        c15h30-1        c15h30-2
                     c15h30-3        c15h30-4        c15h30-5
                     c15h30-6        c15h30-7        c14h28-1
                     c14h28-2        c14h28-3        c14h28-4
                     c14h28-5        c14h28-6        c14h28-7
                     c13h26-1        c13h26-2        c13h26-3
                     c13h26-4        c13h26-5        c13h26-6
                     c12h24-1        c12h24-2        c12h24-3
                     c12h24-4        c12h24-5        c12h24-6
                     c11h22-1        c11h22-2        c11h22-3
                     c11h22-4        c11h22-5        c10h20-1
                     c10h20-2        c10h20-3        c10h20-4
                     c10h20-5        c9h18-1         c9h18-2
                     c9h18-3         c9h18-4         c8h16-1
                     c8h16-2         c8h16-3         c8h16-4
                     c16h33o-1       c16h33o-2       c16h33o-3
                     c16h33o-4       c16h33o-5       c16h33o-6
                     c16h33o-7       c16h33o-8       c15h31o-1
                     c15h31o-2       c15h31o-3       c15h31o-4
                     c15h31o-5       c15h31o-6       c15h31o-7
                     c15h31o-8       c14h29o-1       c14h29o-2
                     c14h29o-3       c14h29o-4       c14h29o-5
                     c14h29o-6       c14h29o-7       c13h27o-1
                     c13h27o-2       c13h27o-3       c13h27o-4
                     c13h27o-5       c13h27o-6       c13h27o-7
                     c12h25o-1       c12h25o-2       c12h25o-3
                     c12h25o-4       c12h25o-5       c12h25o-6
                     c11h23o-1       c11h23o-2       c11h23o-3
                     c11h23o-4       c11h23o-5       c11h23o-6
                     c10h21o-1       c10h21o-2       c10h21o-3
                     c10h21o-4       c10h21o-5       c9h19o-1
                     c9h19o-2        c9h19o-3        c9h19o-4
                     c9h19o-5        c8h17o-1        c8h17o-2
                     c8h17o-3        c8h17o-4        c16h33o2-1
                     c16h33o2-2      c16h33o2-3      c16h33o2-4
                     c16h33o2-5      c16h33o2-6      c16h33o2-7
                     c16h33o2-8      c15h31o2-1      c15h31o2-2
                     c15h31o2-3      c15h31o2-4      c15h31o2-5
                     c15h31o2-6      c15h31o2-7      c15h31o2-8
                     c14h29o2-1      c14h29o2-2      c14h29o2-3
                     c14h29o2-4      c14h29o2-5      c14h29o2-6
                     c14h29o2-7      c13h27o2-1      c13h27o2-2
                     c13h27o2-3      c13h27o2-4      c13h27o2-5
                     c13h27o2-6      c13h27o2-7      c12h25o2-1
                     c12h25o2-2      c12h25o2-3      c12h25o2-4
                     c12h25o2-5      c12h25o2-6      c11h23o2-1
                     c11h23o2-2      c11h23o2-3      c11h23o2-4
                     c11h23o2-5      c11h23o2-6      c10h21o2-1
                     c10h21o2-2      c10h21o2-3      c10h21o2-4
                     c10h21o2-5      c9h19o2-1       c9h19o2-2
                     c9h19o2-3       c9h19o2-4       c9h19o2-5
                     c8h17o2-1       c8h17o2-2       c8h17o2-3
                     c8h17o2-4       c16h33o2h-1     c16h33o2h-2
                     c16h33o2h-3     c16h33o2h-4     c16h33o2h-5
                     c16h33o2h-6     c16h33o2h-7     c16h33o2h-8
                     c15h31o2h-1     c15h31o2h-2     c15h31o2h-3
                     c15h31o2h-4     c15h31o2h-5     c15h31o2h-6
                     c15h31o2h-7     c15h31o2h-8     c14h29o2h-1
                     c14h29o2h-2     c14h29o2h-3     c14h29o2h-4
                     c14h29o2h-5     c14h29o2h-6     c14h29o2h-7
                     c13h27o2h-1     c13h27o2h-2     c13h27o2h-3
                     c13h27o2h-4     c13h27o2h-5     c13h27o2h-6
                     c13h27o2h-7     c12h25o2h-1     c12h25o2h-2
                     c12h25o2h-3     c12h25o2h-4     c12h25o2h-5
                     c12h25o2h-6     c11h23o2h-1     c11h23o2h-2
                     c11h23o2h-3     c11h23o2h-4     c11h23o2h-5
                     c11h23o2h-6     c10h21o2h-1     c10h21o2h-2
                     c10h21o2h-3     c10h21o2h-4     c10h21o2h-5
                     c9h19o2h-1      c9h19o2h-2      c9h19o2h-3
                     c9h19o2h-4      c9h19o2h-5      c8h17o2h-1
                     c8h17o2h-2      c8h17o2h-3      c8h17o2h-4
                     c16ooh1-2       c16ooh1-3       c16ooh1-4
                     c16ooh1-5       c16ooh2-1       c16ooh2-3
                     c16ooh2-4       c16ooh2-5       c16ooh2-6
                     c16ooh3-1       c16ooh3-2       c16ooh3-4
                     c16ooh3-5       c16ooh3-6       c16ooh3-7
                     c16ooh4-1       c16ooh4-2       c16ooh4-3
                     c16ooh4-5       c16ooh4-6       c16ooh4-7
                     c16ooh4-8       c16ooh5-1       c16ooh5-2
                     c16ooh5-3       c16ooh5-4       c16ooh5-6
                     c16ooh5-7       c16ooh5-8       c16ooh5-9
                     c16ooh6-2       c16ooh6-3       c16ooh6-4
                     c16ooh6-5       c16ooh6-7       c16ooh6-8
                     c16ooh6-9       c16ooh6-10      c16ooh7-3
                     c16ooh7-4       c16ooh7-5       c16ooh7-6
                     c16ooh7-8       c16ooh7-9       c16ooh7-10
                     c16ooh7-11      c16ooh8-4       c16ooh8-5
                     c16ooh8-6       c16ooh8-7       c16ooh8-9
                     c16ooh8-10      c16ooh8-11      c16ooh8-12
                     c15ooh1-2       c15ooh1-3       c15ooh1-4
                     c15ooh1-5       c15ooh2-1       c15ooh2-3
                     c15ooh2-4       c15ooh2-5       c15ooh2-6
                     c15ooh3-1       c15ooh3-2       c15ooh3-4
                     c15ooh3-5       c15ooh3-6       c15ooh3-7
                     c15ooh4-1       c15ooh4-2       c15ooh4-3
                     c15ooh4-5       c15ooh4-6       c15ooh4-7
                     c15ooh4-8       c15ooh5-1       c15ooh5-2
                     c15ooh5-3       c15ooh5-4       c15ooh5-6
                     c15ooh5-7       c15ooh5-8       c15ooh5-9
                     c15ooh6-2       c15ooh6-3       c15ooh6-4
                     c15ooh6-5       c15ooh6-7       c15ooh6-8
                     c15ooh6-9       c15ooh6-10      c15ooh7-3
                     c15ooh7-4       c15ooh7-5       c15ooh7-6
                     c15ooh7-8       c15ooh7-9       c15ooh7-10
                     c15ooh7-11      c15ooh8-4       c15ooh8-5
                     c15ooh8-6       c15ooh8-7       c14ooh1-2
                     c14ooh1-3       c14ooh1-4       c14ooh1-5
                     c14ooh2-1       c14ooh2-3       c14ooh2-4
                     c14ooh2-5       c14ooh2-6       c14ooh3-1
                     c14ooh3-2       c14ooh3-4       c14ooh3-5
                     c14ooh3-6       c14ooh3-7       c14ooh4-1
                     c14ooh4-2       c14ooh4-3       c14ooh4-5
                     c14ooh4-6       c14ooh4-7       c14ooh4-8
                     c14ooh5-1       c14ooh5-2       c14ooh5-3
                     c14ooh5-4       c14ooh5-6       c14ooh5-7
                     c14ooh5-8       c14ooh5-9       c14ooh6-2
                     c14ooh6-3       c14ooh6-4       c14ooh6-5
                     c14ooh6-7       c14ooh6-8       c14ooh6-9
                     c14ooh6-10      c14ooh7-3       c14ooh7-4
                     c14ooh7-5       c14ooh7-6       c14ooh7-8
                     c14ooh7-9       c14ooh7-10      c14ooh7-11
                     c13ooh1-2       c13ooh1-3       c13ooh1-4
                     c13ooh1-5       c13ooh2-1       c13ooh2-3
                     c13ooh2-4       c13ooh2-5       c13ooh2-6
                     c13ooh3-1       c13ooh3-2       c13ooh3-4
                     c13ooh3-5       c13ooh3-6       c13ooh3-7
                     c13ooh4-1       c13ooh4-2       c13ooh4-3
                     c13ooh4-5       c13ooh4-6       c13ooh4-7
                     c13ooh4-8       c13ooh5-1       c13ooh5-2
                     c13ooh5-3       c13ooh5-4       c13ooh5-6
                     c13ooh5-7       c13ooh5-8       c13ooh5-9
                     c13ooh6-2       c13ooh6-3       c13ooh6-4
                     c13ooh6-5       c13ooh6-7       c13ooh6-8
                     c13ooh6-9       c13ooh6-10      c13ooh7-3
                     c13ooh7-4       c13ooh7-5       c13ooh7-6
                     c12ooh1-2       c12ooh1-3       c12ooh1-4
                     c12ooh1-5       c12ooh2-1       c12ooh2-3
                     c12ooh2-4       c12ooh2-5       c12ooh2-6
                     c12ooh3-1       c12ooh3-2       c12ooh3-4
                     c12ooh3-5       c12ooh3-6       c12ooh3-7
                     c12ooh4-1       c12ooh4-2       c12ooh4-3
                     c12ooh4-5       c12ooh4-6       c12ooh4-7
                     c12ooh4-8       c12ooh5-1       c12ooh5-2
                     c12ooh5-3       c12ooh5-4       c12ooh5-6
                     c12ooh5-7       c12ooh5-8       c12ooh5-9
                     c12ooh6-2       c12ooh6-3       c12ooh6-4
                     c12ooh6-5       c12ooh6-7       c12ooh6-8
                     c12ooh6-9       c12ooh6-10      c11ooh1-2
                     c11ooh1-3       c11ooh1-4       c11ooh1-5
                     c11ooh2-1       c11ooh2-3       c11ooh2-4
                     c11ooh2-5       c11ooh2-6       c11ooh3-1
                     c11ooh3-2       c11ooh3-4       c11ooh3-5
                     c11ooh3-6       c11ooh3-7       c11ooh4-1
                     c11ooh4-2       c11ooh4-3       c11ooh4-5
                     c11ooh4-6       c11ooh4-7       c11ooh4-8
                     c11ooh5-1       c11ooh5-2       c11ooh5-3
                     c11ooh5-4       c11ooh5-6       c11ooh5-7
                     c11ooh5-8       c11ooh5-9       c11ooh6-2
                     c11ooh6-3       c11ooh6-4       c11ooh6-5
                     c10ooh1-2       c10ooh1-3       c10ooh1-4
                     c10ooh1-5       c10ooh2-1       c10ooh2-3
                     c10ooh2-4       c10ooh2-5       c10ooh2-6
                     c10ooh3-1       c10ooh3-2       c10ooh3-4
                     c10ooh3-5       c10ooh3-6       c10ooh3-7
                     c10ooh4-1       c10ooh4-2       c10ooh4-3
                     c10ooh4-5       c10ooh4-6       c10ooh4-7
                     c10ooh4-8       c10ooh5-1       c10ooh5-2
                     c10ooh5-3       c10ooh5-4       c10ooh5-6
                     c10ooh5-7       c10ooh5-8       c10ooh5-9
                     c9ooh1-2        c9ooh1-3        c9ooh1-4
                     c9ooh1-5        c9ooh2-1        c9ooh2-3
                     c9ooh2-4        c9ooh2-5        c9ooh2-6
                     c9ooh3-1        c9ooh3-2        c9ooh3-4
                     c9ooh3-5        c9ooh3-6        c9ooh3-7
                     c9ooh4-1        c9ooh4-2        c9ooh4-3
                     c9ooh4-5        c9ooh4-6        c9ooh4-7
                     c9ooh4-8        c9ooh5-1        c9ooh5-2
                     c9ooh5-3        c9ooh5-4        c8ooh1-2
                     c8ooh1-3        c8ooh1-4        c8ooh1-5
                     c8ooh2-1        c8ooh2-3        c8ooh2-4
                     c8ooh2-5        c8ooh2-6        c8ooh3-1
                     c8ooh3-2        c8ooh3-4        c8ooh3-5
                     c8ooh3-6        c8ooh3-7        c8ooh4-1
                     c8ooh4-2        c8ooh4-3        c8ooh4-5
                     c8ooh4-6        c8ooh4-7        c8ooh4-8
                     c16ooh1-2o2     c16ooh1-3o2     c16ooh1-4o2
                     c16ooh1-5o2     c16ooh2-1o2     c16ooh2-3o2
                     c16ooh2-4o2     c16ooh2-5o2     c16ooh2-6o2
                     c16ooh3-1o2     c16ooh3-2o2     c16ooh3-4o2
                     c16ooh3-5o2     c16ooh3-6o2     c16ooh3-7o2
                     c16ooh4-1o2     c16ooh4-2o2     c16ooh4-3o2
                     c16ooh4-5o2     c16ooh4-6o2     c16ooh4-7o2
                     c16ooh4-8o2     c16ooh5-1o2     c16ooh5-2o2
                     c16ooh5-3o2     c16ooh5-4o2     c16ooh5-6o2
                     c16ooh5-7o2     c16ooh5-8o2     c16ooh5-9o2
                     c16ooh6-2o2     c16ooh6-3o2     c16ooh6-4o2
                     c16ooh6-5o2     c16ooh6-7o2     c16ooh6-8o2
                     c16ooh6-9o2     c16ooh6-10o2    c16ooh7-3o2
                     c16ooh7-4o2     c16ooh7-5o2     c16ooh7-6o2
                     c16ooh7-8o2     c16ooh7-9o2     c16ooh7-10o2
                     c16ooh7-11o2    c16ooh8-4o2     c16ooh8-5o2
                     c16ooh8-6o2     c16ooh8-7o2     c16ooh8-9o2
                     c16ooh8-10o2    c16ooh8-11o2    c16ooh8-12o2
                     c15ooh1-2o2     c15ooh1-3o2     c15ooh1-4o2
                     c15ooh1-5o2     c15ooh2-1o2     c15ooh2-3o2
                     c15ooh2-4o2     c15ooh2-5o2     c15ooh2-6o2
                     c15ooh3-1o2     c15ooh3-2o2     c15ooh3-4o2
                     c15ooh3-5o2     c15ooh3-6o2     c15ooh3-7o2
                     c15ooh4-1o2     c15ooh4-2o2     c15ooh4-3o2
                     c15ooh4-5o2     c15ooh4-6o2     c15ooh4-7o2
                     c15ooh4-8o2     c15ooh5-1o2     c15ooh5-2o2
                     c15ooh5-3o2     c15ooh5-4o2     c15ooh5-6o2
                     c15ooh5-7o2     c15ooh5-8o2     c15ooh5-9o2
                     c15ooh6-2o2     c15ooh6-3o2     c15ooh6-4o2
                     c15ooh6-5o2     c15ooh6-7o2     c15ooh6-8o2
                     c15ooh6-9o2     c15ooh6-10o2    c15ooh7-3o2
                     c15ooh7-4o2     c15ooh7-5o2     c15ooh7-6o2
                     c15ooh7-8o2     c15ooh7-9o2     c15ooh7-10o2
                     c15ooh7-11o2    c15ooh8-4o2     c15ooh8-5o2
                     c15ooh8-6o2     c15ooh8-7o2     c14ooh1-2o2
                     c14ooh1-3o2     c14ooh1-4o2     c14ooh1-5o2
                     c14ooh2-1o2     c14ooh2-3o2     c14ooh2-4o2
                     c14ooh2-5o2     c14ooh2-6o2     c14ooh3-1o2
                     c14ooh3-2o2     c14ooh3-4o2     c14ooh3-5o2
                     c14ooh3-6o2     c14ooh3-7o2     c14ooh4-1o2
                     c14ooh4-2o2     c14ooh4-3o2     c14ooh4-5o2
                     c14ooh4-6o2     c14ooh4-7o2     c14ooh4-8o2
                     c14ooh5-1o2     c14ooh5-2o2     c14ooh5-3o2
                     c14ooh5-4o2     c14ooh5-6o2     c14ooh5-7o2
                     c14ooh5-8o2     c14ooh5-9o2     c14ooh6-2o2
                     c14ooh6-3o2     c14ooh6-4o2     c14ooh6-5o2
                     c14ooh6-7o2     c14ooh6-8o2     c14ooh6-9o2
                     c14ooh6-10o2    c14ooh7-3o2     c14ooh7-4o2
                     c14ooh7-5o2     c14ooh7-6o2     c14ooh7-8o2
                     c14ooh7-9o2     c14ooh7-10o2    c14ooh7-11o2
                     c13ooh1-2o2     c13ooh1-3o2     c13ooh1-4o2
                     c13ooh1-5o2     c13ooh2-1o2     c13ooh2-3o2
                     c13ooh2-4o2     c13ooh2-5o2     c13ooh2-6o2
                     c13ooh3-1o2     c13ooh3-2o2     c13ooh3-4o2
                     c13ooh3-5o2     c13ooh3-6o2     c13ooh3-7o2
                     c13ooh4-1o2     c13ooh4-2o2     c13ooh4-3o2
                     c13ooh4-5o2     c13ooh4-6o2     c13ooh4-7o2
                     c13ooh4-8o2     c13ooh5-1o2     c13ooh5-2o2
                     c13ooh5-3o2     c13ooh5-4o2     c13ooh5-6o2
                     c13ooh5-7o2     c13ooh5-8o2     c13ooh5-9o2
                     c13ooh6-2o2     c13ooh6-3o2     c13ooh6-4o2
                     c13ooh6-5o2     c13ooh6-7o2     c13ooh6-8o2
                     c13ooh6-9o2     c13ooh6-10o2    c13ooh7-3o2
                     c13ooh7-4o2     c13ooh7-5o2     c13ooh7-6o2
                     c12ooh1-2o2     c12ooh1-3o2     c12ooh1-4o2