"""
MARINOV, N. M, "A DETAILED CHEMICAL KINETIC MODEL FOR HIGH TEMPERATURE ETHANOL OXIDATION"
INT. J. CHEM. KINET. 31:183-220 (1999);
LAWRENCE LIVERMORE NATIONAL LABORATORY, LIVERMORE, CA,
UCRL-JC-131657
UCRL-WEB-204236
REVIEW AND RELEASE DATE: MAY 19, 2004.
DATE: MON, 26 APR 1999 15:25:31 -0700 (PDT)
FROM: "NICK M. MARINOV" <MARINOV@WEST.LLNL.GOV>

MARINOV, N. M, "A DETAILED CHEMICAL KINETIC MODEL FOR HIGH TEMPERATURE ETHANOL OXIDATION"
INT. J. CHEM. KINET. 31:183-220 (1999);
LAWRENCE LIVERMORE NATIONAL LABORATORY, LIVERMORE, CA,
UCRL-JC-131657
UCRL-WEB-208393
REVIEW AND RELEASE DATE: DECEMBER 3, 2004.
DATE: MON, 26 APR 1999 15:25:31 -0700 (PDT)
FROM: "NICK M. MARINOV" <MARINOV@WEST.LLNL.GOV>

"""

units(length='cm', time='s', quantity='mol', act_energy='cal/mol')

ideal_gas(name='gas',
          elements="H O C N",
          species="""H2         H          CH4        CH3        CH2
                     CH         CH2O       HCO        CO2        CO
                     O2         O          OH         HO2        H2O2
                     H2O        C2H        HCCO       C2H2       C2H3
                     C2H4       C2H5       C2H6       CH2OH      CH3O
                     HCCOH      H2CCCH     C3H2       CH2(S)     CH2CO
                     C2O        HCOH       CH3OH      CH2HCO     C3H6
                     AC3H5      PC3H5      SC3H5      CH2CHCHO   PC3H4
                     AC3H4      CH3CO      CH2CHCO    CH3CHCO    CH3HCO
                     CHOCHO     IC3H7      NC3H7      C2H5OH     C2H4OH
                     CH3CHOH    CH3CH2O    CH2CHCH2O  HCOOH      C3H8
                     HOC2H4O2   N2""",
          reactions='all',
          transport='Mix',
          initial_state=state(temperature=300.0, pressure=OneAtm))

#-------------------------------------------------------------------------------
# Species data
#-------------------------------------------------------------------------------

species(name='H2',
        atoms='H:2',
        thermo=(NASA([300.00, 1000.00],
                     [ 3.29812400E+00,  8.24944200E-04, -8.14301500E-07,
                      -9.47543400E-11,  4.13487200E-13, -1.01252100E+03,
                      -3.29409400E+00]),
                NASA([1000.00, 5000.00],
                     [ 2.99142300E+00,  7.00064400E-04, -5.63382900E-08,
                      -9.23157800E-12,  1.58275200E-15, -8.35034000E+02,
                      -1.35511000E+00])),
        transport=gas_transport(geom='linear',
                                diam=2.92,
                                well_depth=38.0,
                                polar=0.79,
                                rot_relax=280.0),
        note='121286')

species(name='H',
        atoms='H:1',
        thermo=(NASA([300.00, 1000.00],
                     [ 2.50000000E+00,  0.00000000E+00,  0.00000000E+00,
                       0.00000000E+00,  0.00000000E+00,  2.54716300E+04,
                      -4.60117600E-01]),
                NASA([1000.00, 5000.00],
                     [ 2.50000000E+00,  0.00000000E+00,  0.00000000E+00,
                       0.00000000E+00,  0.00000000E+00,  2.54716300E+04,
                      -4.60117600E-01])),
        transport=gas_transport(geom='atom',
                                diam=2.05,
                                well_depth=145.0),
        note='120186')

species(name='CH4',
        atoms='C:1 H:4',
        thermo=(NASA([300.00, 1000.00],
                     [ 7.78741500E-01,  1.74766800E-02, -2.78340900E-05,
                       3.04970800E-08, -1.22393100E-11, -9.82522900E+03,
                       1.37221900E+01]),
                NASA([1000.00, 5000.00],
                     [ 1.68347900E+00,  1.02372400E-02, -3.87512900E-06,
                       6.78558500E-10, -4.50342300E-14, -1.00807900E+04,
                       9.62339500E+00])),
        transport=gas_transport(geom='nonlinear',
                                diam=3.746,
                                well_depth=141.4,
                                polar=2.6,
                                rot_relax=13.0),
        note='121286')

species(name='CH3',
        atoms='C:1 H:3',
        thermo=(NASA([300.00, 1000.00],
                     [ 2.43044300E+00,  1.11241000E-02, -1.68022000E-05,
                       1.62182900E-08, -5.86495300E-12,  1.64237800E+04,
                       6.78979400E+00]),
                NASA([1000.00, 5000.00],
                     [ 2.84405200E+00,  6.13797400E-03, -2.23034500E-06,
                       3.78516100E-10, -2.45215900E-14,  1.64378100E+04,
                       5.45269700E+00])),
        transport=gas_transport(geom='linear',
                                diam=3.8,
                                well_depth=144.0),
        note='121286')

species(name='CH2',
        atoms='C:1 H:2',
        thermo=(NASA([300.00, 1350.00],
                     [ 3.49623989E+00,  2.20258645E-03, -4.23828799E-07,
                       1.36484706E-11,  4.31937372E-15,  4.59192771E+04,
                       2.94964354E+00]),
                NASA([1350.00, 5000.00],
                     [ 3.44310466E+00,  2.32638011E-03, -5.33147998E-07,
                       5.74043968E-11, -2.42694849E-15,  4.59375743E+04,
                       3.23484714E+00])),
        transport=gas_transport(geom='linear',
                                diam=3.8,
                                well_depth=144.0),
        note='LLNL94')

species(name='CH',
        atoms='C:1 H:1',
        thermo=(NASA([300.00, 1000.00],
                     [ 3.20020200E+00,  2.07287600E-03, -5.13443100E-06,
                       5.73389000E-09, -1.95553300E-12,  7.04525900E+04,
                       3.33158800E+00]),
                NASA([1000.00, 5000.00],
                     [ 2.19622300E+00,  2.34038100E-03, -7.05820100E-07,
                       9.00758200E-11, -3.85504000E-15,  7.08672300E+04,
                       9.17837300E+00])),
        transport=gas_transport(geom='linear',
                                diam=2.75,
                                well_depth=80.0),
        note='121286')

species(name='CH2O',
        atoms='O:1 C:1 H:2',
        thermo=(NASA([300.00, 1000.00],
                     [ 1.65273100E+00,  1.26314400E-02, -1.88816800E-05,
                       2.05003100E-08, -8.41323700E-12, -1.48654000E+04,
                       1.37848200E+01]),
                NASA([1000.00, 5000.00],
                     [ 2.99560600E+00,  6.68132100E-03, -2.62895500E-06,
                       4.73715300E-10, -3.21251700E-14, -1.53203700E+04,
                       6.91257200E+00])),
        transport=gas_transport(geom='nonlinear',
                                diam=3.59,
                                well_depth=498.0,
                                rot_relax=2.0),
        note='121286')

species(name='HCO',
        atoms='O:1 C:1 H:1',
        thermo=(NASA([300.00, 1000.00],
                     [ 2.89833000E+00,  6.19914700E-03, -9.62308400E-06,
                       1.08982500E-08, -4.57488500E-12,  4.15992200E+03,
                       8.98361400E+00]),
                NASA([1000.00, 5000.00],
                     [ 3.55727100E+00,  3.34557300E-03, -1.33500600E-06,
                       2.47057300E-10, -1.71385100E-14,  3.91632400E+03,
                       5.55229900E+00])),
        transport=gas_transport(geom='nonlinear',
                                diam=3.59,
                                well_depth=498.0),
        note='121286')

species(name='CO2',
        atoms='O:2 C:1',
        thermo=(NASA([300.00, 1000.00],
                     [ 2.27572500E+00,  9.92207200E-03, -1.04091100E-05,
                       6.86668700E-09, -2.11728000E-12, -4.83731400E+04,
                       1.01884900E+01]),
                NASA([1000.00, 5000.00],
                     [ 4.45362300E+00,  3.14016900E-03, -1.27841100E-06,
                       2.39399700E-10, -1.66903300E-14, -4.89669600E+04,
                      -9.55395900E-01])),
        transport=gas_transport(geom='linear',
                                diam=3.763,
                                well_depth=244.0,
                                polar=2.65,
                                rot_relax=2.1),
        note='121286')

species(name='CO',
        atoms='O:1 C:1',
        thermo=(NASA([300.00, 1000.00],
                     [ 3.26245200E+00,  1.51194100E-03, -3.88175500E-06,
                       5.58194400E-09, -2.47495100E-12, -1.43105400E+04,
                       4.84889700E+00]),
                NASA([1000.00, 5000.00],
                     [ 3.02507800E+00,  1.44268900E-03, -5.63082800E-07,
                       1.01858100E-10, -6.91095200E-15, -1.42683500E+04,
                       6.10821800E+00])),
        transport=gas_transport(geom='linear',
                                diam=3.65,
                                well_depth=98.1,
                                polar=1.95,
                                rot_relax=1.8),
        note='121286')

species(name='O2',
        atoms='O:2',
        thermo=(NASA([300.00, 1000.00],
                     [ 3.21293600E+00,  1.12748600E-03, -5.75615000E-07,
                       1.31387700E-09, -8.76855400E-13, -1.00524900E+03,
                       6.03473800E+00]),
                NASA([1000.00, 5000.00],
                     [ 3.69757800E+00,  6.13519700E-04, -1.25884200E-07,
                       1.77528100E-11, -1.13643500E-15, -1.23393000E+03,
                       3.18916600E+00])),
        transport=gas_transport(geom='linear',
                                diam=3.458,
                                well_depth=107.4,
                                polar=1.6,
                                rot_relax=3.8),
        note='121386')

species(name='O',
        atoms='O:1',
        thermo=(NASA([300.00, 1000.00],
                     [ 2.94642900E+00, -1.63816600E-03,  2.42103200E-06,
                      -1.60284300E-09,  3.89069600E-13,  2.91476400E+04,
                       2.96399500E+00]),
                NASA([1000.00, 5000.00],
                     [ 2.54206000E+00, -2.75506200E-05, -3.10280300E-09,
                       4.55106700E-12, -4.36805200E-16,  2.92308000E+04,
                       4.92030800E+00])),
        transport=gas_transport(geom='atom',
                                diam=2.75,
                                well_depth=80.0),
        note='120186')

species(name='OH',
        atoms='O:1 H:1',
        thermo=(NASA([300.00, 1000.00],
                     [ 3.63726600E+00,  1.85091000E-04, -1.67616500E-06,
                       2.38720300E-09, -8.43144200E-13,  3.60678200E+03,
                       1.35886000E+00]),
                NASA([1000.00, 5000.00],
                     [ 2.88273000E+00,  1.01397400E-03, -2.27687700E-07,
                       2.17468400E-11, -5.12630500E-16,  3.88688800E+03,
                       5.59571200E+00])),
        transport=gas_transport(geom='linear',
                                diam=2.75,
                                well_depth=80.0),
        note='121286')

species(name='HO2',
        atoms='O:2 H:1',
        thermo=(NASA([300.00, 1451.00],
                     [ 3.47629499E+00,  2.20467745E-03,  1.56841876E-06,
                      -2.12755802E-09,  5.83140718E-13,  6.17073446E+02,
                       7.02308516E+00]),
                NASA([1451.00, 5000.00],
                     [ 4.58311499E+00,  1.72730339E-03, -6.19183136E-07,
                       9.91939193E-11, -5.88221567E-15,  3.13365859E+01,
                       3.46199386E-01])),
        transport=gas_transport(geom='nonlinear',
                                diam=3.458,
                                well_depth=107.4,
                                rot_relax=1.0),
        note='MAR97')

species(name='H2O2',
        atoms='O:2 H:2',
        thermo=(NASA([300.00, 1000.00],
                     [ 3.38875400E+00,  6.56922600E-03, -1.48501300E-07,
                      -4.62580600E-09,  2.47151500E-12, -1.76631500E+04,
                       6.78536300E+00]),
                NASA([1000.00, 5000.00],
                     [ 4.57316700E+00,  4.33613600E-03, -1.47468900E-06,
                       2.34890400E-10, -1.43165400E-14, -1.80069600E+04,
                       5.01137000E-01])),
        transport=gas_transport(geom='nonlinear',
                                diam=3.458,
                                well_depth=107.4,
                                rot_relax=3.8),
        note='120186')

species(name='H2O',
        atoms='O:1 H:2',
        thermo=(NASA([300.00, 1000.00],
                     [ 3.38684200E+00,  3.47498200E-03, -6.35469600E-06,
                       6.96858100E-09, -2.50658800E-12, -3.02081100E+04,
                       2.59023300E+00]),
                NASA([1000.00, 5000.00],
                     [ 2.67214600E+00,  3.05629300E-03, -8.73026000E-07,
                       1.20099600E-10, -6.39161800E-15, -2.98992100E+04,
                       6.86281700E+00])),
        transport=gas_transport(geom='nonlinear',
                                diam=2.605,
                                well_depth=572.4,
                                dipole=1.844,
                                rot_relax=4.0),
        note='20387')

species(name='C2H',
        atoms='C:2 H:1',
        thermo=(NASA([300.00, 1000.00],
                     [ 2.73770400E+00,  8.04844600E-03, -9.24431000E-06,
                       6.52525900E-09, -1.93958000E-12,  6.68381300E+04,
                       7.30022000E+00]),
                NASA([1000.00, 4000.00],
                     [ 3.98636700E+00,  3.14312300E-03, -1.26724300E-06,
                       2.92436300E-10, -2.71632000E-14,  6.65588400E+04,
                       1.19106300E+00])),
        transport=gas_transport(geom='linear',
                                diam=3.721,
                                well_depth=265.3,
                                rot_relax=2.5),
        note='81193')

species(name='HCCO',
        atoms='O:1 C:2 H:1',
        thermo=(NASA([300.00, 1000.00],
                     [ 5.04796500E+00,  4.45347800E-03,  2.26828300E-07,
                      -1.48209500E-09,  2.25074200E-13,  1.96589200E+04,
                       4.81843900E-01]),
                NASA([1000.00, 4000.00],
                     [ 6.75807300E+00,  2.00040000E-03, -2.02760700E-07,
                      -1.04113200E-10,  1.96516500E-14,  1.90151300E+04,
                      -9.07126200E+00])),
        transport=gas_transport(geom='nonlinear',
                                diam=2.5,
                                well_depth=150.0,
                                rot_relax=1.0),
        note='32387')

species(name='C2H2',
        atoms='C:2 H:2',
        thermo=(NASA([300.00, 1000.00],
                     [ 2.01356200E+00,  1.51904500E-02, -1.61631900E-05,
                       9.07899200E-09, -1.91274600E-12,  2.61244400E+04,
                       8.80537800E+00]),
                NASA([1000.00, 5000.00],
                     [ 4.43677000E+00,  5.37603900E-03, -1.91281700E-06,
                       3.28637900E-10, -2.15671000E-14,  2.56676600E+04,
                      -2.80033800E+00])),
        transport=gas_transport(geom='linear',
                                diam=3.721,
                                well_depth=265.3,
                                rot_relax=2.5),
        note='121386')

species(name='C2H3',
        atoms='C:2 H:3',
        thermo=(NASA([300.00, 1671.00],
                     [ 2.73925942E+00,  7.03011591E-03,  2.36647299E-06,
                      -3.59569737E-09,  8.91756491E-13,  3.42868979E+04,
                       1.01531535E+01]),
                NASA([1671.00, 5000.00],
                     [ 3.96047713E+00,  7.99426013E-03, -2.85608087E-06,
                       4.58350813E-10, -2.72570140E-14,  3.35153544E+04,
                       2.25663414E+00])),
        transport=gas_transport(geom='nonlinear',
                                diam=3.721,
                                well_depth=265.3,
                                rot_relax=1.0),
        note='MAR94')

species(name='C2H4',
        atoms='C:2 H:4',
        thermo=(NASA([300.00, 1000.00],
                     [-8.61488000E-01,  2.79616300E-02, -3.38867700E-05,
                       2.78515200E-08, -9.73787900E-12,  5.57304600E+03,
                       2.42114900E+01]),
                NASA([1000.00, 5000.00],
                     [ 3.52841900E+00,  1.14851800E-02, -4.41838500E-06,
                       7.84460100E-10, -5.26684800E-14,  4.42828900E+03,
                       2.23038900E+00])),
        transport=gas_transport(geom='nonlinear',
                                diam=3.496,
                                well_depth=238.4,
                                rot_relax=1.5),
        note='121286')

species(name='C2H5',
        atoms='C:2 H:5',
        thermo=(NASA([300.00, 1375.00],
                     [ 1.47374852E+00,  1.63606611E-02, -4.32896826E-06,
                      -1.17270665E-09,  5.72325883E-13,  1.33326992E+04,
                       1.66349852E+01]),
                NASA([1375.00, 5000.00],
                     [ 5.60116091E+00,  1.06977081E-02, -3.63504780E-06,
                       5.61816654E-10, -3.24914714E-14,  1.14539845E+04,
                      -7.02252408E+00])),
        transport=gas_transport(geom='nonlinear',
                                diam=4.35,
                                well_depth=247.5,
                                rot_relax=1.5),
        note='JPC93')

species(name='C2H6',
        atoms='C:2 H:6',
        thermo=(NASA([300.00, 1000.00],
                     [ 1.46253900E+00,  1.54946700E-02,  5.78050700E-06,
                      -1.25783200E-08,  4.58626700E-12, -1.12391800E+04,
                       1.44322900E+01]),
                NASA([1000.00, 4000.00],
                     [ 4.82593800E+00,  1.38404300E-02, -4.55725900E-06,
                       6.72496700E-10, -3.59816100E-14, -1.27177900E+04,
                      -5.23950700E+00])),
        transport=gas_transport(geom='nonlinear',
                                diam=4.35,
                                well_depth=247.5,
                                rot_relax=1.5),
        note='121686')

species(name='CH2OH',
        atoms='O:1 C:1 H:3',
        thermo=(NASA([300.00, 1410.00],
                     [ 2.60067849E+00,  1.28447854E-02, -8.33796185E-06,
                       2.75727606E-09, -3.57041106E-13, -2.33478724E+03,
                       1.13272307E+01]),
                NASA([1410.00, 5000.00],
                     [ 6.00127803E+00,  4.98721568E-03, -1.60953515E-06,
                       2.40227135E-10, -1.35582700E-14, -3.50157098E+03,
                      -6.92836844E+00])),
        transport=gas_transport(geom='nonlinear',
                                diam=3.69,
                                well_depth=417.0,
                                dipole=1.7,
                                rot_relax=2.0),
        note='MAR97')

species(name='CH3O',
        atoms='O:1 C:1 H:3',
        thermo=(NASA([300.00, 1000.00],
                     [ 2.10620400E+00,  7.21659500E-03,  5.33847200E-06,
                      -7.37763600E-09,  2.07561100E-12,  9.78601100E+02,
                       1.31521800E+01]),
                NASA([1000.00, 3000.00],
                     [ 3.77080000E+00,  7.87149700E-03, -2.65638400E-06,
                       3.94443100E-10, -2.11261600E-14,  1.27832500E+02,
                       2.92957500E+00])),
        transport=gas_transport(geom='nonlinear',
                                diam=3.69,
                                well_depth=417.0,
                                dipole=1.7,
                                rot_relax=2.0),
        note='121686')

species(name='HCCOH',
        atoms='O:1 C:2 H:2',
        thermo=(NASA([300.00, 1000.00],
                     [ 3.89946500E+00,  9.70107500E-03, -3.11930900E-07,
                      -5.53773200E-09,  2.46573200E-12,  8.70119000E+03,
                       4.49187500E+00]),
                NASA([1000.00, 4000.00],
                     [ 7.32832400E+00,  3.33641600E-03, -3.02470500E-07,
                      -1.78110600E-10,  3.24516800E-14,  7.59825800E+03,
                      -1.40121400E+01])),
        transport=gas_transport(geom='nonlinear',
                                diam=3.97,
                                well_depth=436.0,
                                rot_relax=2.0),
        note='32387')

species(name='H2CCCH',
        atoms='C:3 H:3',
        thermo=(NASA([300.00, 1000.00],
                     [ 4.75420000E+00,  1.10802800E-02,  2.79332300E-07,
                      -5.47921200E-09,  1.94962900E-12,  3.98888300E+04,
                       5.85454900E-01]),
                NASA([1000.00, 4000.00],
                     [ 8.83104700E+00,  4.35719500E-03, -4.10906700E-07,
                      -2.36872300E-10,  4.37652000E-14,  3.84742000E+04,
                      -2.17791900E+01])),
        transport=gas_transport(geom='nonlinear',
                                diam=4.76,
                                well_depth=252.0,
                                rot_relax=1.0),
        note='82489')

species(name='C3H2',
        atoms='C:3 H:2',
        thermo=(NASA([150.00, 1000.00],
                     [ 3.16671400E+00,  2.48257200E-02, -4.59163700E-05,
                       4.26801900E-08, -1.48215200E-11,  6.35042100E+04,
                       8.86944600E+00]),
                NASA([1000.00, 4000.00],
                     [ 7.67098100E+00,  2.74874900E-03, -4.37094300E-07,
                      -6.45559900E-11,  1.66388700E-14,  6.25972200E+04,
                      -1.23689000E+01])),
        transport=gas_transport(geom='nonlinear',
                                diam=4.1,
                                well_depth=209.0,
                                rot_relax=1.0),
        note='102193')

species(name='CH2(S)',
        atoms='C:1 H:2',
        thermo=(NASA([300.00, 1359.00],
                     [ 3.32340701E+00,  2.28062579E-03, -2.48156016E-07,
                      -1.02065386E-10,  2.48826619E-14,  5.04954469E+04,
                       3.09401497E+00]),
                NASA([1359.00, 5000.00],
                     [ 3.09627180E+00,  2.80839185E-03, -7.13614526E-07,
                       8.42136298E-11, -3.84640828E-15,  5.05739697E+04,
                       4.31392269E+00])),
        transport=gas_transport(geom='linear',
                                diam=3.8,
                                well_depth=144.0),
        note='ADJNBR')

species(name='CH2CO',
        atoms='O:1 C:2 H:2',
        thermo=(NASA([300.00, 1000.00],
                     [ 2.97497100E+00,  1.21187100E-02, -2.34504600E-06,
                      -6.46668500E-09,  3.90564900E-12, -7.63263700E+03,
                       8.67355300E+00]),
                NASA([1000.00, 5000.00],
                     [ 6.03881700E+00,  5.80484000E-03, -1.92095400E-06,
                       2.79448500E-10, -1.45886800E-14, -8.58340200E+03,
                      -7.65758100E+00])),
        transport=gas_transport(geom='nonlinear',
                                diam=3.97,
                                well_depth=436.0,
                                rot_relax=2.0),
        note='121686')

species(name='C2O',
        atoms='O:1 C:2',
        thermo=(NASA([300.00, 1000.00],
                     [ 3.36885100E+00,  8.24180300E-03, -8.76514500E-06,
                       5.56926200E-09, -1.54000900E-12,  3.31708100E+04,
                       6.71331400E+00]),
                NASA([1000.00, 5000.00],
                     [ 4.84980900E+00,  2.94758500E-03, -1.09072900E-06,
                       1.79256200E-10, -1.11575800E-14,  3.28205500E+04,
                      -6.45322600E-01])),
        transport=gas_transport(geom='linear',
                                diam=3.828,
                                well_depth=232.4,
                                rot_relax=1.0),
        note='121286')

species(name='HCOH',
        atoms='O:1 C:1 H:2',
        thermo=(NASA([300.00, 1398.00],
                     [-2.82157421E+00,  3.57331702E-02, -3.80861580E-05,
                       1.86205951E-08, -3.45957838E-12,  1.12956672E+04,
                       3.48487757E+01]),
                NASA([1398.00, 5000.00],
                     [ 9.18749272E+00,  1.52011152E-03, -6.27603516E-07,
                       1.09727989E-10, -6.89655128E-15,  7.81364593E+03,
                      -2.73434214E+01])),
        transport=gas_transport(geom='nonlinear',
                                diam=3.59,
                                well_depth=498.0,
                                rot_relax=1.0),
        note='MAR94')

species(name='CH3OH',
        atoms='O:1 C:1 H:4',
        thermo=(NASA([300.00, 1000.00],
                     [ 2.66011500E+00,  7.34150800E-03,  7.17005100E-06,
                      -8.79319400E-09,  2.39057000E-12, -2.53534800E+04,
                       1.12326300E+01]),
                NASA([1000.00, 5000.00],
                     [ 4.02906100E+00,  9.37659300E-03, -3.05025400E-06,
                       4.35879300E-10, -2.22472300E-14, -2.61579100E+04,
                       2.37819600E+00])),
        transport=gas_transport(geom='nonlinear',
                                diam=3.626,
                                well_depth=481.8,
                                rot_relax=1.0),
        note='121686')

species(name='CH2HCO',
        atoms='O:1 C:2 H:3',
        thermo=(NASA([300.00, 1000.00],
                     [ 3.40906200E+00,  1.07385700E-02,  1.89149200E-06,
                      -7.15858300E-09,  2.86738500E-12,  1.52147700E+03,
                       9.55829000E+00]),
                NASA([1000.00, 5000.00],
                     [ 5.97567000E+00,  8.13059100E-03, -2.74362400E-06,
                       4.07030400E-10, -2.17601700E-14,  4.90321800E+02,
                      -5.04525100E+00])),
        transport=gas_transport(geom='nonlinear',
                                diam=3.97,
                                well_depth=436.0,
                                rot_relax=2.0),
        note='110393')

species(name='C3H6',
        atoms='C:3 H:6',
        thermo=(NASA([300.00, 1000.00],
                     [ 1.49330700E+00,  2.09251800E-02,  4.48679400E-06,
                      -1.66891200E-08,  7.15814600E-12,  1.07482600E+03,
                       1.61453400E+01]),
                NASA([1000.00, 5000.00],
                     [ 6.73225700E+00,  1.49083400E-02, -4.94989900E-06,
                       7.21202200E-10, -3.76620400E-14, -9.23570300E+02,
                      -1.33133500E+01])),
        transport=gas_transport(geom='nonlinear',
                                diam=4.14,
                                well_depth=307.8,
                                rot_relax=1.0),
        note='120186')

species(name='AC3H5',
        atoms='C:3 H:5',
        thermo=(NASA([300.00, 1378.00],
                     [ 9.73013819E-01,  2.81818597E-02, -1.62938809E-05,
                       3.96194325E-09, -2.25704537E-13,  1.85230753E+04,
                       1.93201408E+01]),
                NASA([1378.00, 5000.00],
                     [ 9.75762472E+00,  1.00615154E-02, -3.40608453E-06,
                       5.25696641E-10, -3.03917313E-14,  1.52845733E+04,
                      -2.86237172E+01])),
        transport=gas_transport(geom='nonlinear',
                                diam=4.22,
                                well_depth=316.0,
                                rot_relax=1.0),
        note='MAR97')

species(name='PC3H5',
        atoms='C:3 H:5',
        thermo=(NASA([300.00, 1000.00],
                     [ 3.16186300E+00,  1.51810000E-02,  2.72265900E-06,
                      -5.17711200E-09,  5.43528600E-14,  3.09554800E+04,
                       1.19797300E+01]),
                NASA([1000.00, 4000.00],
                     [ 9.20976400E+00,  7.87141300E-03, -7.72452300E-07,
                      -4.49735700E-10,  8.37727200E-14,  2.85396700E+04,
                      -2.23237000E+01])),
        transport=gas_transport(geom='nonlinear',
                                diam=4.22,
                                well_depth=316.0,
                                rot_relax=1.0),
        note='82489')

species(name='SC3H5',
        atoms='C:3 H:5',
        thermo=(NASA([300.00, 1000.00],
                     [ 3.38581100E+00,  1.40453400E-02,  3.20412700E-06,
                      -3.82412000E-09, -9.05374200E-13,  2.90906600E+04,
                       1.12664900E+01]),
                NASA([1000.00, 4000.00],
                     [ 9.10101800E+00,  7.96416800E-03, -7.88494500E-07,
                      -4.56203600E-10,  8.52921200E-14,  2.67068000E+04,
                      -2.15055900E+01])),
        transport=gas_transport(geom='nonlinear',
                                diam=4.22,
                                well_depth=316.0,
                                rot_relax=1.0),
        note='82489')

species(name='CH2CHCHO',
        atoms='O:1 C:3 H:4',
        thermo=(NASA([300.00, 1389.00],
                     [ 5.80467878E-01,  3.16384674E-02, -2.27932718E-05,