units(length='cm', time='s', quantity='mol', act_energy='kcal/mol')

ideal_gas(name='gas',
          elements="O H C Ar He Ni",
          species="""H2O       CO        CO2       H2        CH4
                     CH2O      CH3OH     O2        CHCH      CH2CH2
                     CH3CH3    CH3CH2OH  CH2CHOH   CHCOH     CH3CHO
                     CH3COOH   HCOOH     AR        HE""",
          reactions='gas-*',
          transport='Mix',
          initial_state=state(temperature=300.0, pressure=OneAtm))

stoichiometric_solid(name='Ni_bulk',
          elements = 'Ni',
          density = (8.908, 'g/cm3'),
          species = 'NI(B)')
          
ideal_interface(name='Ni_surface',
                elements="O H C Ar He Ni",
                species="""NI(S)       CH3OH(S)     CH2OH(S)
                          CHOH(S)      COH(S)       CH3O(S)      CH2O(S)
                          CHO(S)       CO(S)        CH3(S)       CH2(S)
                          CH(S)        C(S)         COOH(S)      H2O(S)
                          OH(S)        O(S)         H(S)         CH3CH2(S)
                          CH3CH(S)     CH3C(S)      CH2CH(S)     CH2C(S)
                          CH3COH(S)    CH3CH2OH(S)  CH2CH2OH(S)  CHCH2OH(S)
                          CCH2OH(S)    CH3CHOH(S)   CH3CH2O(S)   CH3CHO(S)
                          CCO(S)       CHCOOH(S)    CCOOH(S)     CH3CO(S)
                          CCOO(S)      HCOOH(S)     HCOH2(S)     COH2(S)
                          CH3CH3(S)    CH2CH2(S)    HCOO(S)      CO2(S)
                          CHCH(S)      CHC(S)       CC(S)        CH2CHOH(S)
                          CHCHOH(S)    CCHOH(S)     CH2COH(S)    CHCOH(S)
                          CCOH(S)      CH2CH2O(S)   CHCH2O(S)    CCH2O(S)
                          CH2CHO(S)    CHCHO(S)     CCHO(S)      CH2CO(S)
                          CHCO(S)      CH3COOH(S)   CH2COOH(S)   CH3COO(S)
                          CH2COO(S)    CHCOO(S)     H2COOH(S)    H2COO(S)""",
                site_density=2.943e-09,
                phases="gas Ni_bulk",
                reactions='all',
                initial_state=state(temperature=300.0, pressure=OneAtm))

#-------------------------------------------------------------------------------
# Species data
#-------------------------------------------------------------------------------

species(name='H2O',
        atoms='O:1 H:2',
        thermo=(NASA([200.00, 1000.00],
                     [ 4.19864056E+00, -2.03643410E-03,  6.52040211E-06,
                      -5.48797062E-09,  1.77197817E-12, -3.02937267E+04,
                      -8.49032208E-01]),
                NASA([1000.00, 3500.00],
                     [ 3.03399249E+00,  2.17691804E-03, -1.64072518E-07,
                      -9.70419870E-11,  1.68200992E-14, -3.00042971E+04,
                       4.96677010E+00])),
        transport=gas_transport(geom='nonlinear',
                                diam=2.605,
                                well_depth=572.4,
                                dipole=1.844,
                                rot_relax=4.0),
        note='L8/89')

species(name='CO',
        atoms='C:1 O:1',
        thermo=(NASA([200.00, 1000.00],
                     [ 3.57953347E+00, -6.10353680E-04,  1.01681433E-06,
                       9.07005884E-10, -9.04424499E-13, -1.43440860E+04,
                       3.50840928E+00]),
                NASA([1000.00, 3500.00],
                     [ 2.71518561E+00,  2.06252743E-03, -9.98825771E-07,
                       2.30053008E-10, -2.03647716E-14, -1.41518724E+04,
                       7.81868772E+00])),
        transport=gas_transport(geom='linear',
                                diam=3.65,
                                well_depth=98.1,
                                polar=1.95,
                                rot_relax=1.8),
        note='TPIS79')

species(name='CO2',
        atoms='C:1 O:2',
        thermo=(NASA([200.00, 1000.00],
                     [ 2.35677352E+00,  8.98459677E-03, -7.12356269E-06,
                       2.45919022E-09, -1.43699548E-13, -4.83719697E+04,
                       9.90105222E+00]),
                NASA([1000.00, 3500.00],
                     [ 3.85746029E+00,  4.41437026E-03, -2.21481404E-06,
                       5.23490188E-10, -4.72084164E-14, -4.87591660E+04,
                       2.27163806E+00])),
        transport=gas_transport(geom='linear',
                                diam=3.763,
                                well_depth=244.0,
                                polar=2.65,
                                rot_relax=2.1),
        note='L7/88')

species(name='H2',
        atoms='H:2',
        thermo=(NASA([200.00, 1000.00],
                     [ 2.34433112E+00,  7.98052075E-03, -1.94781510E-05,
                       2.01572094E-08, -7.37611761E-12, -9.17935173E+02,
                       6.83010238E-01]),
                NASA([1000.00, 3500.00],
                     [ 3.33727920E+00, -4.94024731E-05,  4.99456778E-07,
                      -1.79566394E-10,  2.00255376E-14, -9.50158922E+02,
                      -3.20502331E+00])),
        transport=gas_transport(geom='linear',
                                diam=2.92,
                                well_depth=38.0,
                                polar=0.79,
                                rot_relax=280.0),
        note='TPIS78')

species(name='CH4',
        atoms='C:1 H:4',
        thermo=(NASA([200.00, 1000.00],
                     [ 5.14987613E+00, -1.36709788E-02,  4.91800599E-05,
                      -4.84743026E-08,  1.66693956E-11, -1.02466476E+04,
                      -4.64130376E+00]),
                NASA([1000.00, 3500.00],
                     [ 7.48514950E-02,  1.33909467E-02, -5.73285809E-06,
                       1.22292535E-09, -1.01815230E-13, -9.46834459E+03,
                       1.84373180E+01])),
        transport=gas_transport(geom='nonlinear',
                                diam=3.746,
                                well_depth=141.4,
                                polar=2.6,
                                rot_relax=13.0),
        note='L8/88')

species(name='CH2O',
        atoms='C:1 O:1 H:2',
        thermo=(NASA([200.00, 1000.00],
                     [ 4.79372315E+00, -9.90833369E-03,  3.73220008E-05,
                      -3.79285261E-08,  1.31772652E-11, -1.43089567E+04,
                       6.02812900E-01]),
                NASA([1000.00, 3500.00],
                     [ 1.76069008E+00,  9.20000082E-03, -4.42258813E-06,
                       1.00641212E-09, -8.83855640E-14, -1.39958323E+04,
                       1.36563230E+01])),
        transport=gas_transport(geom='nonlinear',
                                diam=3.59,
                                well_depth=498.0,
                                rot_relax=2.0),
        note='L8/88')

species(name='CH3OH',
        atoms='C:1 O:1 H:4',
        thermo=(NASA([200.00, 1000.00],
                     [ 5.71539582E+00, -1.52309129E-02,  6.52441155E-05,
                      -7.10806889E-08,  2.61352698E-11, -2.56427656E+04,
                      -1.50409823E+00]),
                NASA([1000.00, 3500.00],
                     [ 1.78970791E+00,  1.40938292E-02, -6.36500835E-06,
                       1.38171085E-09, -1.17060220E-13, -2.53748747E+04,
                       1.45023623E+01])),
        transport=gas_transport(geom='nonlinear',
                                diam=3.626,
                                well_depth=481.8,
                                rot_relax=1.0),
        note='L8/88')

species(name='O2',
        atoms='O:2',
        thermo=(NASA([200.00, 1000.00],
                     [ 3.78245636E+00, -2.99673416E-03,  9.84730201E-06,
                      -9.68129509E-09,  3.24372837E-12, -1.06394356E+03,
                       3.65767573E+00]),
                NASA([1000.00, 3500.00],
                     [ 3.28253784E+00,  1.48308754E-03, -7.57966669E-07,
                       2.09470555E-10, -2.16717794E-14, -1.08845772E+03,
                       5.45323129E+00])),
        transport=gas_transport(geom='linear',
                                diam=3.458,
                                well_depth=107.4,
                                polar=1.6,
                                rot_relax=3.8),
        note='TPIS89')

species(name='CHCH',
        atoms='C:2 H:2',
        thermo=(NASA([200.00, 1000.00],
                     [ 8.08679682E-01,  2.33615762E-02, -3.55172234E-05,
                       2.80152958E-08, -8.50075165E-12,  2.64289808E+04,
                       1.39396761E+01]),
                NASA([1000.00, 6000.00],
                     [ 4.65878489E+00,  4.88396667E-03, -1.60828888E-06,
                       2.46974544E-10, -1.38605959E-14,  2.57594042E+04,
                      -3.99838194E+00])),
        transport=gas_transport(geom='linear',
                                diam=4.1,
                                well_depth=209.0,
                                rot_relax=2.5),
        note='acetyleneg1/91')

species(name='CH2CH2',
        atoms='C:2 H:4',
        thermo=(NASA([200.00, 1000.00],
                     [ 3.95920063E+00, -7.57051373E-03,  5.70989993E-05,
                      -6.91588352E-08,  2.69884190E-11,  5.08977598E+03,
                       4.09730213E+00]),
                NASA([1000.00, 6000.00],
                     [ 3.99182724E+00,  1.04833908E-02, -3.71721342E-06,
                       5.94628366E-10, -3.53630386E-14,  4.26865851E+03,
                      -2.69081762E-01])),
        transport=gas_transport(geom='nonlinear',
                                diam=3.971,
                                well_depth=280.8,
                                rot_relax=1.5),
        note='g1/00')

species(name='CH3CH3',
        atoms='C:2 H:6',
        thermo=(NASA([200.00, 1000.00],
                     [ 4.29142572E+00, -5.50154901E-03,  5.99438458E-05,
                      -7.08466469E-08,  2.68685836E-11, -1.15222056E+04,
                       2.66678994E+00]),
                NASA([1000.00, 6000.00],
                     [ 4.04666411E+00,  1.53538802E-02, -5.47039485E-06,
                       8.77826544E-10, -5.23167531E-14, -1.24473499E+04,
                      -9.68698313E-01])),
        transport=gas_transport(geom='nonlinear',
                                diam=4.35,
                                well_depth=247.5,
                                rot_relax=1.5),
        note='g8/88')

species(name='CH3CH2OH',
        atoms='C:2 O:1 H:6',
        thermo=(NASA([200.00, 1000.00],
                     [ 4.85869570E+00, -3.74017260E-03,  6.95553780E-05,
                      -8.86547960E-08,  3.51688350E-11, -2.99961320E+04,
                       4.80185450E+00]),
                NASA([1000.00, 6000.00],
                     [ 6.56243650E+00,  1.52042220E-02, -5.38967950E-06,
                       8.62250110E-10, -5.12897870E-14, -3.15256210E+04,
                      -9.47302020E+00])),
        transport=gas_transport(geom='nonlinear',
                                diam=4.53,
                                well_depth=362.6,
                                rot_relax=1.5),
        note='L8/88')

species(name='CH2CHOH',
        atoms='C:2 O:1 H:4',
        thermo=(NASA([200.00, 1000.00],
                     [ 2.28758479E+00,  1.97013262E-02,  1.96382662E-06,
                      -1.94389758E-08,  1.02616778E-11, -1.65373421E+04,
                       1.41333462E+01]),
                NASA([1000.00, 6000.00],
                     [ 7.49818166E+00,  1.03957000E-02, -3.66891058E-06,
                       5.85205827E-10, -3.47373827E-14, -1.81643092E+04,
                      -1.38388104E+01])),
        transport=gas_transport(geom='nonlinear',
                                diam=4.162,
                                well_depth=224.7,
                                rot_relax=1.0),
        note='vinylalcoT03/10')

species(name='CHCOH',
        atoms='C:2 O:1 H:2',
        thermo=(NASA([200.00, 1000.00],
                     [ 2.05541154E+00,  2.52003372E-02, -3.80821654E-05,
                       3.09890632E-08, -9.89799902E-12,  9.76872113E+03,
                       1.22271534E+01]),
                NASA([1000.00, 6000.00],
                     [ 6.37509678E+00,  5.49429011E-03, -1.88136576E-06,
                       2.93803536E-10, -1.71771901E-14,  8.93277676E+03,
                      -8.24498007E+00])),
        transport=gas_transport(geom='nonlinear',
                                diam=4.162,
                                well_depth=224.7,
                                rot_relax=1.0),
        note='EthynolT12/09')

species(name='CH3CHO',
        atoms='C:2 O:1 H:4',
        thermo=(NASA([200.00, 1000.00],
                     [ 4.72945950E+00, -3.19328580E-03,  4.75349210E-05,
                      -5.74586110E-08,  2.19311120E-11, -2.15728780E+04,
                       4.10301590E+00]),
                NASA([1000.00, 6000.00],
                     [ 5.40411080E+00,  1.17230590E-02, -4.22631370E-06,
                       6.83724510E-10, -4.09848630E-14, -2.25931220E+04,
                      -3.48079170E+00])),
        transport=gas_transport(geom='nonlinear',
                                diam=4.53,
                                well_depth=362.6,
                                rot_relax=1.5),
        note='L8/88')

species(name='CH3COOH',
        atoms='C:2 O:2 H:4',
        thermo=(NASA([200.00, 1000.00],
                     [ 2.78950201E+00,  9.99941719E-03,  3.42572245E-05,
                      -5.09031329E-08,  2.06222185E-11, -5.34752488E+04,
                       1.41053123E+01]),
                NASA([1000.00, 6000.00],
                     [ 7.67084601E+00,  1.35152602E-02, -5.25874333E-06,
                       8.93184479E-10, -5.53180543E-14, -5.57560970E+04,
                      -1.54677315E+01])),
        transport=gas_transport(geom='nonlinear',
                                diam=3.971,
                                well_depth=280.8,
                                rot_relax=1.5),
        note='g6/00')

species(name='HCOOH',
        atoms='C:1 O:2 H:2',
        thermo=(NASA([200.00, 1000.00],
                     [ 3.89836160E+00, -3.55877950E-03,  3.55205380E-05,
                      -4.38499590E-08,  1.71077690E-11, -4.67706090E+04,
                       7.34953970E+00]),
                NASA([1000.00, 6000.00],
                     [ 4.61383160E+00,  6.44963640E-03, -2.29082510E-06,
                       3.67160470E-10, -2.18736750E-14, -4.75148500E+04,
                       8.47883830E-01])),
        transport=gas_transport(geom='nonlinear',
                                diam=3.59,
                                well_depth=498.0,
                                rot_relax=1.0),
        note='FORMICACIDL8/88')

species(name='AR',
        atoms='Ar:1',
        thermo=(NASA([300.00, 1000.00],
                     [ 2.50000000E+00,  0.00000000E+00,  0.00000000E+00,
                       0.00000000E+00,  0.00000000E+00, -7.45375000E+02,
                       4.36600000E+00]),
                NASA([1000.00, 5000.00],
                     [ 2.50000000E+00,  0.00000000E+00,  0.00000000E+00,
                       0.00000000E+00,  0.00000000E+00, -7.45375000E+02,
                       4.36600000E+00])),
        transport=gas_transport(geom='atom',
                                diam=3.33,
                                well_depth=136.5),
        note='120186')

species(name='HE',
        atoms='He:1',
        thermo=(NASA([200.00, 1000.00],
                     [ 2.50000000E+00,  0.00000000E+00,  0.00000000E+00,
                       0.00000000E+00,  0.00000000E+00, -7.45375000E+02,
                       9.28723974E-01]),
                NASA([1000.00, 3500.00],
                     [ 2.50000000E+00,  0.00000000E+00,  0.00000000E+00,
                       0.00000000E+00,  0.00000000E+00, -7.45375000E+02,
                       9.28723974E-01])),
        transport=gas_transport(geom='atom',
                                diam=2.576,
                                well_depth=10.2))

species(name='NI(S)',
        atoms='Ni:1',
        thermo=(NASA([200.00, 1000.00],
                     [ 3.17256294E+00, -3.68116242E-03,  1.18225380E-05,
                      -1.34698808E-08,  5.14645597E-12,  5.08682965E+04,
                       4.51755523E+00]),
                NASA([1000.00, 6000.00],
                     [ 3.26364752E+00, -3.07959067E-04,  3.17844397E-08,
                       3.20016813E-12, -1.59348857E-16,  5.06819143E+04,
                       3.20616552E+00])),
        note='g8/97')

species(name='NI(B)',
        atoms='Ni:1',
        thermo=(NASA([200.00, 1000.00],
                     [ 3.17256294E+00, -3.68116242E-03,  1.18225380E-05,
                      -1.34698808E-08,  5.14645597E-12,  5.08682965E+04,
                       4.51755523E+00]),
                NASA([1000.00, 6000.00],
                     [ 3.26364752E+00, -3.07959067E-04,  3.17844397E-08,
                       3.20016813E-12, -1.59348857E-16,  5.06819143E+04,
                       3.20616552E+00])),
        note='g8/97')

species(name='CH3OH(S)',
        atoms='C:1 O:1 H:4',
        thermo=(NASA([200.00, 1000.00],
                     [ 5.65851051E+00, -1.62983419E-02,  6.91938156E-05,
                      -7.58372926E-08,  2.80427550E-11, -3.40216364E+04,
                      -1.97093421E+01]),
                NASA([1000.00, 6000.00],
                     [ 3.52726795E+00,  1.03178783E-02, -3.62892944E-06,
                       5.77448016E-10, -3.42182632E-14, -3.44125462E+04,
                      -1.36064197E+01])),
        note='T06/02')

species(name='CH2OH(S)',
        atoms='C:1 O:1 H:3',
        thermo=(NASA([200.00, 1000.00],
                     [ 4.47832317E+00, -1.35069687E-03,  2.78483707E-05,
                      -3.64867397E-08,  1.47906775E-11, -2.74653813E+04,
                      -1.54783672E+01]),
                NASA([1000.00, 6000.00],
                     [ 5.09312037E+00,  5.94758550E-03, -2.06496524E-06,
                       3.23006703E-10, -1.88125052E-14, -2.79987463E+04,
                      -2.06088289E+01])),
        note='IU2/03')

species(name='CHOH(S)',
        atoms='C:1 O:1 H:2',
        thermo=(NASA([200.00, 2950.00],
                     [ 3.22277475E+00,  1.75651253E-03,  1.05123478E-05,
                      -1.11948585E-08,  3.36389459E-12, -2.25267032E+04,
                      -1.43910639E+01]),
                NASA([2950.00, 3000.00],
                     [ 5.05868248E+00,  2.84918159E-03,  1.31059635E-07,
                      -4.18891813E-10,  7.54464444E-14, -2.34866111E+04,
                      -2.56995389E+01])))

species(name='COH(S)',
        atoms='C:1 O:1 H:1',
        thermo=(NASA([200.00, 1000.00],
                     [ 4.36380907E+00, -5.35204137E-03,  2.31954508E-05,
                      -2.66109040E-08,  1.02711962E-11, -2.58094605E+04,
                      -1.55959304E+01]),
                NASA([1000.00, 6000.00],
                     [ 4.23892214E+00,  1.96576170E-03, -3.82075171E-07,
                       4.80137647E-11, -3.11176347E-15, -2.60941677E+04,
                      -1.65626686E+01])),
        note='IU5/03')

species(name='CH3O(S)',
        atoms='C:1 O:1 H:3',
        thermo=(NASA([200.00, 1000.00],
                     [ 3.71180502E+00, -2.80463306E-03,  3.76550971E-05,
                      -4.73072089E-08,  1.86588420E-11, -3.15307251E+04,
                      -1.21556136E+01]),
                NASA([1000.00, 6000.00],
                     [ 4.75779238E+00,  7.44142474E-03, -2.69705176E-06,
                       4.38090504E-10, -2.63537098E-14, -3.24483108E+04,
                      -2.06481136E+01])),
        note='IU1/03')

species(name='CH2O(S)',
        atoms='C:1 O:1 H:2',
        thermo=(NASA([200.00, 1000.00],
                     [ 4.79372312E+00, -9.90833322E-03,  3.73219990E-05,
                      -3.79285237E-08,  1.31772641E-11, -2.36081427E+04,
                      -1.79852651E+01]),
                NASA([1000.00, 6000.00],
                     [ 3.16952665E+00,  6.19320560E-03, -2.25056366E-06,
                       3.65975660E-10, -2.20149458E-14, -2.37776304E+04,
                      -1.25229352E+01])),
        note='8/88')

species(name='CHO(S)',
        atoms='C:1 O:1 H:1',
        thermo=(NASA([200.00, 1000.00],
                     [ 4.23754610E+00, -3.32075257E-03,  1.40030264E-05,
                      -1.34239995E-08,  4.37416208E-12, -2.36212973E+04,
                      -1.52641355E+01]),
                NASA([1000.00, 6000.00],
                     [ 3.92001542E+00,  2.52279324E-03, -6.71004164E-07,
                       1.05615948E-10, -7.43798261E-15, -2.38402798E+04,
                      -1.49749111E+01])),
        note='T5/03')

species(name='CO(S)',
        atoms='C:1 O:1',
        thermo=(NASA([200.00, 1000.00],
                     [ 3.57953347E+00, -6.10353680E-04,  1.01681433E-06,
                       9.07005884E-10, -9.04424499E-13, -2.99807241E+04,
                      -1.48535160E+01]),
                NASA([1000.00, 3500.00],
                     [ 2.71518561E+00,  2.06252743E-03, -9.98825771E-07,
                       2.30053008E-10, -2.03647716E-14, -2.97885105E+04,
                      -1.05476775E+01])),
        note='TPIS79')

species(name='CH3(S)',
        atoms='C:1 H:3',
        thermo=(NASA([200.00, 1000.00],
                     [ 3.65717970E+00,  2.12659790E-03,  5.45838830E-06,
                      -6.61810030E-09,  2.46570740E-12, -8.93209024E+03,
                      -1.57793370E+01]),
                NASA([1000.00, 6000.00],
                     [ 2.97812060E+00,  5.79785200E-03, -1.97558000E-06,
                       3.07297900E-10, -1.79174160E-14, -8.84529324E+03,
                      -1.27304138E+01])),
        note='IU0702')

species(name='CH2(S)',
        atoms='C:1 H:2',
        thermo=(NASA([200.00, 1000.00],
                     [ 3.84261832E+00, -7.36676871E-06,  6.16970693E-06,
                      -6.96689962E-09,  2.64620979E-12, -1.49970578E+03,
                      -1.60815016E+01]),
                NASA([1000.00, 6000.00],
                     [ 3.11049513E+00,  3.73779517E-03, -1.37371977E-06,
                       2.23054839E-10, -1.33567178E-14, -1.39126328E+03,
                      -1.27304043E+01])),
        note='IU3/03')

species(name='CH(S)',
        atoms='C:1 H:1',
        thermo=(NASA([200.00, 1000.00],
                     [ 3.48975830E+00,  3.24321600E-04, -1.68997510E-06,
                       3.16284200E-09, -1.40618030E-12,  1.37540019E+03,
                      -1.50980680E+01]),
                NASA([1000.00, 6000.00],
                     [ 2.52093690E+00,  1.76536390E-03, -4.61476600E-07,
                       5.92896750E-11, -3.34745010E-15,  1.70952319E+03,
                      -9.79020921E+00])),
        note='IU3/03')

species(name='C(S)',
        atoms='C:1',
        thermo=(NASA([200.00, 1000.00],
                     [ 2.55423950E+00, -3.21537720E-04,  7.33792230E-07,
                      -7.32234870E-10,  2.66521440E-13,  1.33440398E+04,
                      -1.23860481E+01]),
                NASA([1000.00, 6000.00],
                     [ 2.60558300E+00, -1.95934340E-04,  1.06737220E-07,
                      -1.64239400E-11,  8.18705800E-16,  1.33131008E+04,
                      -1.27234180E+01])),
        note='L7/88')

species(name='COOH(S)',
        atoms='C:1 O:2 H:1',
        thermo=(NASA([200.00, 1000.00],
                     [ 2.92207919E+00,  7.62453859E-03,  3.29884437E-06,
                      -1.07135205E-08,  5.11587057E-12, -5.32898535E+04,
                      -8.07072801E+00]),
                NASA([1000.00, 6000.00],
                     [ 5.39206152E+00,  4.11221455E-03, -1.48194900E-06,
                       2.39875460E-10, -1.43903104E-14, -5.41223728E+04,
                      -2.15671775E+01])),
        note='ATcT/A')

species(name='H2O(S)',
        atoms='O:1 H:2',
        thermo=(NASA([200.00, 1000.00],
                     [ 4.19864056E+00, -2.03643410E-03,  6.52040211E-06,
                      -5.48797062E-09,  1.77197817E-12, -3.65493885E+04,
                      -1.85293161E+01]),
                NASA([1000.00, 3500.00],
                     [ 3.03399249E+00,  2.17691804E-03, -1.64072518E-07,
                      -9.70419870E-11,  1.68200992E-14, -3.62599589E+04,
                      -1.69279464E+00])),
        note='L8/89')

species(name='OH(S)',
        atoms='O:1 H:1',
        thermo=(NASA([200.00, 1000.00],
                     [ 3.99198424E+00, -2.40106655E-03,  4.61664033E-06,
                      -3.87916306E-09,  1.36319502E-12, -3.21620528E+04,
                      -1.76714815E+01]),
                NASA([1000.00, 6000.00],
                     [ 2.83853033E+00,  1.10741289E-03, -2.94000209E-07,
                       4.20698729E-11, -2.42289890E-15, -3.18331431E+04,
                      -1.17343861E+01])),
        note='IU3/03')

species(name='O(S)',
        atoms='O:1',
        thermo=(NASA([200.00, 1000.00],
                     [ 3.16826710E+00, -3.27931884E-03,  6.64306396E-06,
                      -6.12806624E-09,  2.11265971E-12, -2.74605289E+04,
                      -1.52919733E+01]),
                NASA([1000.00, 3500.00],
                     [ 2.56942078E+00, -8.59741137E-05,  4.19484589E-08,
                      -1.00177799E-11,  1.22833691E-15, -2.73652090E+04,
                      -1.25610202E+01])),
        note='L1/90')

species(name='H(S)',
        atoms='H:1',
        thermo=(NASA([200.00, 1000.00],
                     [ 2.50000000E+00,  0.00000000E+00,  0.00000000E+00,
                       0.00000000E+00,  0.00000000E+00, -6.48909793E+03,
                      -1.35751482E+01]),
                NASA([1000.00, 6000.00],
                     [ 2.50000000E+00,  0.00000000E+00,  0.00000000E+00,
                       0.00000000E+00,  0.00000000E+00, -6.48909793E+03,
                      -1.35751482E+01])),
        note='L6/94')

species(name='CH3CH2(S)',
        atoms='C:2 H:5',
        thermo=(NASA([200.00, 1000.00],
                     [ 4.24185905E+00, -3.56905235E-03,  4.82667202E-05,
                      -5.85401009E-08,  2.25804514E-11, -5.15376379E+03,
                      -1.42398372E+01]),
                NASA([1000.00, 6000.00],
                     [ 4.32195633E+00,  1.23930542E-02, -4.39680960E-06,
                       7.03519917E-10, -4.18435239E-14, -5.94685069E+03,
                      -1.84696076E+01])),
        note='IU1/07')

species(name='CH3CH(S)',
        atoms='C:2 H:4',
        thermo=(NASA([200.00, 1000.00],
                     [ 3.95920063E+00, -7.57051373E-03,  5.70989993E-05,
                      -6.91588352E-08,  2.69884190E-11, -3.35511582E+03,
                      -1.43968993E+01]),
                NASA([1000.00, 6000.00],
                     [ 3.99182724E+00,  1.04833908E-02, -3.71721342E-06,
                       5.94628366E-10, -3.53630386E-14, -4.17623329E+03,
                      -1.87163445E+01])))

species(name='CH3C(S)',
        atoms='C:2 H:3',
        thermo=(NASA([200.00, 1000.00],
                     [ 3.36377642E+00,  2.65765722E-04,  2.79620704E-05,
                      -3.72986942E-08,  1.51590176E-11, -6.34537326E+03,
                      -1.06136110E+01]),
                NASA([1000.00, 6000.00],
                     [ 4.15026763E+00,  7.54021341E-03, -2.62997847E-06,
                       4.15974048E-10, -2.45407509E-14, -6.96369416E+03,
                      -1.67708859E+01])))

species(name='CH2CH(S)',
        atoms='C:2 H:3',
        thermo=(NASA([200.00, 1000.00],
                     [ 3.36377642E+00,  2.65765722E-04,  2.79620704E-05,
                      -3.72986942E-08,  1.51590176E-11,  2.90475256E+03,
                      -1.06136110E+01]),
                NASA([1000.00, 6000.00],
                     [ 4.15026763E+00,  7.54021341E-03, -2.62997847E-06,
                       4.15974048E-10, -2.45407509E-14,  2.28643166E+03,
                      -1.67708859E+01])),
        note='ATcT/A')

species(name='CH2C(S)',
        atoms='C:2 H:2',
        thermo=(NASA([200.00, 1000.00],
                     [ 3.28154830E+00,  6.97647910E-03, -2.38552440E-06,
                      -1.21044320E-09,  9.81895450E-13,  4.12758162E+03,
                      -1.24780711E+01]),
                NASA([1000.00, 6000.00],
                     [ 4.27803400E+00,  4.75628040E-03, -1.63010090E-06,
                       2.54628060E-10, -1.48863790E-14,  3.82247562E+03,
                      -1.77472151E+01])),
        note='L12/89')

species(name='CH3COH(S)',
        atoms='C:2 O:1 H:4',
        thermo=(NASA([200.00, 1000.00],
                     [ 2.28758479E+00,  1.97013262E-02,  1.96382662E-06,
                      -1.94389758E-08,  1.02616778E-11, -3.95720678E+04,
                      -5.30081656E+00]),
                NASA([1000.00, 6000.00],
                     [ 7.49818166E+00,  1.03957000E-02, -3.66891058E-06,
                       5.85205827E-10, -3.47373827E-14, -4.11990349E+04,
                      -3.32152860E+01])))

species(name='CH3CH2OH(S)',
        atoms='C:2 O:1 H:6',
        thermo=(NASA([200.00, 1000.00],
                     [ 4.85869570E+00, -3.74017260E-03,  6.95553780E-05,
                      -8.86547960E-08,  3.51688350E-11, -4.21149040E+04,
                      -1.47038887E+01]),
                NASA([1000.00, 6000.00],
                     [ 6.56243650E+00,  1.52042220E-02, -5.38967950E-06,
                       8.62250110E-10, -5.12897870E-14, -4.36443930E+04,
                      -2.89022347E+01])),
        note='L8/88')

species(name='CH2CH2OH(S)',
        atoms='C:2 O:1 H:5',
        thermo=(NASA([200.00, 1000.00],
                     [ 4.20954137E+00,  9.12964578E-03,  2.47462263E-05,